
     RDKit          3D

 23 24  0  0  0  0  0  0  0  0999 V2000
    4.2217    0.1079    0.4350 C   0  0  0  0  0  0  0  0  0  0  0  0
    3.3225    0.8707    1.4091 C   0  0  0  0  0  0  0  0  0  0  0  0
    1.9266    0.6318    0.9584 N   0  0  0  0  0  0  0  0  0  0  0  0
    2.0301   -0.3337    0.0917 C   0  0  0  0  0  0  0  0  0  0  0  0
    3.2814   -0.8163   -0.1670 N   0  0  0  0  0  0  0  0  0  0  0  0
    1.0495   -0.9558   -0.6236 N   0  0  0  0  0  0  0  0  0  0  0  0
   -0.3179   -0.6208   -0.4234 C   0  0  0  0  0  0  0  0  0  0  0  0
   -1.1847   -1.5373    0.2049 C   0  0  0  0  0  0  0  0  0  0  0  0
   -2.5160   -1.2103    0.4813 C   0  0  0  0  0  0  0  0  0  0  0  0
   -3.0091    0.0460    0.1379 C   0  0  0  0  0  0  0  0  0  0  0  0
   -2.1736    0.9685   -0.4894 C   0  0  0  0  0  0  0  0  0  0  0  0
   -0.8402    0.6417   -0.7678 C   0  0  0  0  0  0  0  0  0  0  0  0
    0.0967    1.8149   -1.6335 Cl  0  0  0  0  0  0  0  0  0  0  0  0
   -0.6268   -3.1157    0.6494 Cl  0  0  0  0  0  0  0  0  0  0  0  0
    5.0423   -0.4084    0.9401 H   0  0  0  0  0  0  0  0  0  0  0  0
    4.6303    0.7808   -0.3265 H   0  0  0  0  0  0  0  0  0  0  0  0
    3.4366    0.4924    2.4310 H   0  0  0  0  0  0  0  0  0  0  0  0
    3.5508    1.9409    1.4065 H   0  0  0  0  0  0  0  0  0  0  0  0
    3.4440   -1.0000   -1.1505 H   0  0  0  0  0  0  0  0  0  0  0  0
    1.1816   -1.9626   -0.6063 H   0  0  0  0  0  0  0  0  0  0  0  0
   -3.1693   -1.9293    0.9693 H   0  0  0  0  0  0  0  0  0  0  0  0
   -4.0424    0.3059    0.3548 H   0  0  0  0  0  0  0  0  0  0  0  0
   -2.5653    1.9447   -0.7660 H   0  0  0  0  0  0  0  0  0  0  0  0
  1  2  1  0
  2  3  1  0
  3  4  2  0
  4  5  1  0
  4  6  1  0
  6  7  1  0
  7  8  2  0
  8  9  1  0
  9 10  2  0
 10 11  1  0
 11 12  2  0
 12 13  1  0
  8 14  1  0
  5  1  1  0
 12  7  1  0
  1 15  1  0
  1 16  1  0
  2 17  1  0
  2 18  1  0
  5 19  1  0
  6 20  1  0
  9 21  1  0
 10 22  1  0
 11 23  1  0
M  END
