
     RDKit          3D

 26 26  0  0  0  0  0  0  0  0999 V2000
    3.3110    1.3266    1.1877 C   0  0  0  0  0  0  0  0  0  0  0  0
    2.1312    0.4730    1.1429 N   0  0  0  0  0  0  0  0  0  0  0  0
    2.1029   -0.3203   -0.0954 C   0  0  0  0  0  0  0  0  0  0  0  0
    0.9202   -1.3228   -0.1811 C   0  0  0  0  0  0  0  0  0  0  0  0
   -0.4935   -0.7667   -0.1292 C   0  0  0  0  0  0  0  0  0  0  0  0
   -0.7952    0.5854   -0.3600 C   0  0  0  0  0  0  0  0  0  0  0  0
   -2.1181    1.0181   -0.3181 C   0  0  0  0  0  0  0  0  0  0  0  0
   -3.1494    0.1198   -0.0637 C   0  0  0  0  0  0  0  0  0  0  0  0
   -2.8802   -1.2195    0.1601 C   0  0  0  0  0  0  0  0  0  0  0  0
   -1.5556   -1.6607    0.1274 C   0  0  0  0  0  0  0  0  0  0  0  0
   -4.4425    0.5564   -0.0312 O   0  0  0  0  0  0  0  0  0  0  0  0
   -2.4536    2.3289   -0.5225 O   0  0  0  0  0  0  0  0  0  0  0  0
    1.0790   -2.0746   -1.3927 O   0  0  0  0  0  0  0  0  0  0  0  0
    4.2341    0.7380    1.1718 H   0  0  0  0  0  0  0  0  0  0  0  0
    3.3014    1.9126    2.1119 H   0  0  0  0  0  0  0  0  0  0  0  0
    3.3206    2.0321    0.3506 H   0  0  0  0  0  0  0  0  0  0  0  0
    2.1410   -0.1559    1.9465 H   0  0  0  0  0  0  0  0  0  0  0  0
    3.0344   -0.8956   -0.1855 H   0  0  0  0  0  0  0  0  0  0  0  0
    2.0782    0.3445   -0.9686 H   0  0  0  0  0  0  0  0  0  0  0  0
    1.0331   -2.0340    0.6475 H   0  0  0  0  0  0  0  0  0  0  0  0
   -0.0018    1.2980   -0.5616 H   0  0  0  0  0  0  0  0  0  0  0  0
   -3.6910   -1.9134    0.3593 H   0  0  0  0  0  0  0  0  0  0  0  0
   -1.3496   -2.7158    0.3027 H   0  0  0  0  0  0  0  0  0  0  0  0
   -4.3785    1.5160   -0.2089 H   0  0  0  0  0  0  0  0  0  0  0  0
   -1.6284    2.8373   -0.6091 H   0  0  0  0  0  0  0  0  0  0  0  0
    0.2505   -2.0072   -1.8985 H   0  0  0  0  0  0  0  0  0  0  0  0
  1  2  1  0
  2  3  1  0
  3  4  1  0
  4  5  1  0
  5  6  2  0
  6  7  1  0
  7  8  2  0
  8  9  1  0
  9 10  2  0
  8 11  1  0
  7 12  1  0
  4 13  1  0
 10  5  1  0
  1 14  1  0
  1 15  1  0
  1 16  1  0
  2 17  1  0
  3 18  1  0
  3 19  1  0
  4 20  1  0
  6 21  1  0
  9 22  1  0
 10 23  1  0
 11 24  1  0
 12 25  1  0
 13 26  1  0
M  END
