
     RDKit          3D

 23 24  0  0  0  0  0  0  0  0999 V2000
   -3.4986   -0.3125   -0.0679 C   0  0  0  0  0  0  0  0  0  0  0  0
   -2.8042    0.1917    1.1982 C   0  0  0  0  0  0  0  0  0  0  0  0
   -1.3445    0.1097    0.9311 N   0  0  0  0  0  0  0  0  0  0  0  0
   -1.2644   -0.1019   -0.3506 C   0  0  0  0  0  0  0  0  0  0  0  0
   -2.4352   -0.2032   -1.0467 N   0  0  0  0  0  0  0  0  0  0  0  0
   -0.1547   -0.2457   -1.1304 N   0  0  0  0  0  0  0  0  0  0  0  0
    1.1462   -0.0997   -0.5750 C   0  0  0  0  0  0  0  0  0  0  0  0
    1.9335    1.0213   -0.9062 C   0  0  0  0  0  0  0  0  0  0  0  0
    3.1865    1.2309   -0.3217 C   0  0  0  0  0  0  0  0  0  0  0  0
    3.6784    0.3233    0.6129 C   0  0  0  0  0  0  0  0  0  0  0  0
    2.9216   -0.7965    0.9535 C   0  0  0  0  0  0  0  0  0  0  0  0
    1.6668   -1.0081    0.3678 C   0  0  0  0  0  0  0  0  0  0  0  0
    0.8392   -2.4739    0.7806 Cl  0  0  0  0  0  0  0  0  0  0  0  0
    1.3740    2.1800   -2.0659 Cl  0  0  0  0  0  0  0  0  0  0  0  0
   -4.3698    0.2911   -0.3357 H   0  0  0  0  0  0  0  0  0  0  0  0
   -3.8026   -1.3587    0.0446 H   0  0  0  0  0  0  0  0  0  0  0  0
   -3.0703    1.2339    1.4065 H   0  0  0  0  0  0  0  0  0  0  0  0
   -3.0720   -0.4164    2.0678 H   0  0  0  0  0  0  0  0  0  0  0  0
   -2.4255   -0.9419   -1.7406 H   0  0  0  0  0  0  0  0  0  0  0  0
   -0.2471    0.2978   -1.9833 H   0  0  0  0  0  0  0  0  0  0  0  0
    3.7786    2.1032   -0.5874 H   0  0  0  0  0  0  0  0  0  0  0  0
    4.6503    0.4846    1.0730 H   0  0  0  0  0  0  0  0  0  0  0  0
    3.3138   -1.5090    1.6755 H   0  0  0  0  0  0  0  0  0  0  0  0
  1  2  1  0
  2  3  1  0
  3  4  2  0
  4  5  1  0
  4  6  1  0
  6  7  1  0
  7  8  2  0
  8  9  1  0
  9 10  2  0
 10 11  1  0
 11 12  2  0
 12 13  1  0
  8 14  1  0
  5  1  1  0
 12  7  1  0
  1 15  1  0
  1 16  1  0
  2 17  1  0
  2 18  1  0
  5 19  1  0
  6 20  1  0
  9 21  1  0
 10 22  1  0
 11 23  1  0
M  END
